<routes>
    <vehicle depart="0.07" departPos="0" departLane="best" arrivalPos="-1" type="private" id="Prati_Capraia_100_672_0">
        <route edges="3[0] 3[1] 3[1]b" />
    </vehicle>
    <vehicle depart="0.58" departPos="0" departLane="best" arrivalPos="-1" type="private" id="Gandhi_60_1978_0">
        <route edges="1[0] a1[1] 1[1] 40[0] 40[1]" />
    </vehicle>
    <vehicle depart="0.79" departPos="0" departLane="best" arrivalPos="-1" type="private" id="Borgo_20_416_0">
        <route edges="6 100 7 4[1][1][1]" />
    </vehicle>
    <vehicle depart="1.71" departPos="0" departLane="best" arrivalPos="-1" type="private" id="Malvasia_100_532_0">
        <route edges="52 51 56[0] 56[1][0] 56[1][1] 5[1][0]+66 5[1][1][1] 8 3[1] 3[1]b" />
    </vehicle>
    <vehicle depart="1.88" departPos="0" departLane="best" arrivalPos="-1" type="private" id="Gandhi_30_473_0">
        <route edges="1[0] 25 23 17[0] 17[1] 11[0] 11[1][1] 70" />
    </vehicle>
    <vehicle depart="2.45" departPos="0" departLane="best" arrivalPos="-1" type="private" id="Malvasia_92_531_0">
        <route edges="52 51 56[0] 56[1][0] 34[0] 34[1][0] 34[1][1] 2[1][0] 2[1][1][0] 2[1][1][1] 2[1][1][1]b" />
    </vehicle>
    <vehicle depart="3.01" departPos="0" departLane="best" arrivalPos="-1" type="private" id="Saffi_10_1182_0">
        <route edges="12 56[0] 56[1][0] 56[1][1] 5[1][0]+66 5[1][1][1] 8 10" />
    </vehicle>
    <vehicle depart="3.31" departPos="0" departLane="best" arrivalPos="-1" type="private" id="Gandhi_60_305_0">
        <route edges="1[0] a1[1] 1[1] 40[0] 40[1]" />
    </vehicle>
    <vehicle depart="3.86" departPos="0" departLane="best" arrivalPos="-1" type="private" id="Sabotino_9_372_0">
        <route edges="41 42 2[0] 2[1][0] 2[1][1][0] 2[1][1][1] 2[1][1][1]b" />
    </vehicle>
    <vehicle depart="4.45" departPos="0" departLane="best" arrivalPos="-1" type="private" id="Saffi_90_295_0">
        <route edges="12 56[0] 39[0] 39[1][0] 39[1][1][0] 39[1][1][1] 45 2[0] 2[1][0] 2[1][1][0] 2[1][1][1] 2[1][1][1]b" />
    </vehicle>
    <vehicle depart="5.10" departPos="0" departLane="best" arrivalPos="-1" type="private" id="Saffi_20_518_0">
        <route edges="12 56[0] 56[1][0] 56[1][1] 5[1][0]+66 5[1][1][1] 8 4[1][1][1]" />
    </vehicle>
    <vehicle depart="5.60" departPos="0" departLane="best" arrivalPos="-1" type="private" id="Pertini_20_490_0">
        <route edges="63[0] 63[1] 4[0] 4[1][1][0] 4[1][1][1]" />
    </vehicle>
    <vehicle depart="5.96" departPos="0" departLane="best" arrivalPos="-1" type="private" id="Gandhi_60_1965_0">
        <route edges="1[0] a1[1] 1[1] 40[0] 40[1]" />
    </vehicle>
    <vehicle depart="6.25" departPos="0" departLane="best" arrivalPos="-1" type="private" id="Saffi_103_1210_0">
        <route edges="12 56[0] 56[1][0] 56[1][1] 5[1][0]+66 5[1][1][1] 8 3[1] 3[1]b" />
    </vehicle>
    <vehicle depart="6.90" departPos="0" departLane="best" arrivalPos="-1" type="ignoring" id="Gandhi_52_1657_0">
        <route edges="1[0] 25 23 17[0] 30 31 11[1][1] 101 35[0] 35[1][0] 35[1][1][0] 20000+35[1][1][1][0] 35[1][1][1][1]" />
    </vehicle>
    <vehicle depart="7.38" departPos="0" departLane="best" arrivalPos="-1" type="private" id="Pertini_22_1173_0">
        <route edges="13[0] 14 17[0] 17[1] 8 4[1][1][1]" />
    </vehicle>
    <vehicle depart="8.13" departPos="0" departLane="best" arrivalPos="-1" type="private" id="Gandhi_60_844_0">
        <route edges="1[0] a1[1] 1[1] 40[0] 40[1]" />
    </vehicle>
    <vehicle depart="8.32" departPos="0" departLane="best" arrivalPos="-1" type="private" id="Pertini_43_234_0">
        <route edges="63[0] 63[1] 4[0] 28 28a 17[1] 11[0] 11[1][1] 101 34[0] 34[1][0] 36 46 49[0] 49[1] 55 53 53a" />
    </vehicle>
    <vehicle depart="8.88" departPos="0" departLane="best" arrivalPos="-1" type="private" id="Montefiorino_60_411_0">
        <route edges="43 81 40[0] 40[1]" />
    </vehicle>
    <vehicle depart="9.34" departPos="0" departLane="best" arrivalPos="-1" type="private" id="Pertini_20_526_0">
        <route edges="63[0] 63[1] 4[0] 4[1][1][0] 4[1][1][1]" />
    </vehicle>
    <vehicle depart="9.93" departPos="0" departLane="best" arrivalPos="-1" type="private" id="Pertini_20_1414_0">
        <route edges="63[0] 63[1] 4[0] 4[1][1][0] 4[1][1][1]" />
    </vehicle>
    <vehicle depart="10.73" departPos="0" departLane="best" arrivalPos="-1" type="private" id="Borgo_100_203_0">
        <route edges="6 100 7 3[1] 3[1]b" />
    </vehicle>
    <vehicle depart="11.00" departPos="0" departLane="best" arrivalPos="-1" type="private" id="Montefiorino_90_552_0">
        <route edges="43 81 2[0] 2[1][0] 2[1][1][0] 2[1][1][1] 2[1][1][1]b" />
    </vehicle>
    <vehicle depart="11.28" departPos="0" departLane="best" arrivalPos="-1" type="private" id="Montefiorino_90_108_0">
        <route edges="43 81 2[0] 2[1][0] 2[1][1][0] 2[1][1][1] 2[1][1][1]b" />
    </vehicle>
    <vehicle depart="12.24" departPos="0" departLane="best" arrivalPos="-1" type="private" id="Pertini_20_51_0">
        <route edges="63[0] 63[1] 4[0] 4[1][1][0] 4[1][1][1]" />
    </vehicle>
    <vehicle depart="12.74" departPos="0" departLane="best" arrivalPos="-1" type="private" id="Montefiorino_30_668_0">
        <route edges="43 81 38[0] 38[0]a 38[1][0] 38[1][1] 38[1][1]a 56[1][0] 56[1][1] 70" />
    </vehicle>
    <vehicle depart="13.21" departPos="0" departLane="best" arrivalPos="-1" type="private" id="Malvasia_100_315_0">
        <route edges="52 51 56[0] 56[1][0] 56[1][1] 5[1][0]+66 5[1][1][1] 8 3[1] 3[1]b" />
    </vehicle>
    <vehicle depart="13.28" departPos="0" departLane="best" arrivalPos="-1" type="private" id="Montefiorino_30_252_0">
        <route edges="43 81 38[0] 38[0]a 38[1][0] 38[1][1] 38[1][1]a 56[1][0] 56[1][1] 70" />
    </vehicle>
    <vehicle depart="13.86" departPos="0" departLane="best" arrivalPos="-1" type="private" id="Pertini_20_247_0">
        <route edges="63[0] 63[1] 4[0] 4[1][1][0] 4[1][1][1]" />
    </vehicle>
    <vehicle depart="14.26" departPos="0" departLane="best" arrivalPos="-1" type="private" id="Pertini_20_1642_0">
        <route edges="63[0] 63[1] 4[0] 4[1][1][0] 4[1][1][1]" />
    </vehicle>
    <vehicle depart="14.83" departPos="0" departLane="best" arrivalPos="-1" type="private" id="Montefiorino_30_149_0">
        <route edges="43 81 38[0] 38[0]a 38[1][0] 38[1][1] 38[1][1]a 56[1][0] 56[1][1] 70" />
    </vehicle>
    <vehicle depart="15.56" departPos="0" departLane="best" arrivalPos="-1" type="private" id="Gandhi_60_103_0">
        <route edges="1[0] a1[1] 1[1] 40[0] 40[1]" />
    </vehicle>
    <vehicle depart="15.86" departPos="0" departLane="best" arrivalPos="-1" type="private" id="Gandhi_40_1911_0">
        <route edges="1[0] a1[1] 1[1] 38[0] 38[0]a 46 49[0] 49[1] 55 53 53a" />
    </vehicle>
    <vehicle depart="16.35" departPos="0" departLane="best" arrivalPos="-1" type="private" id="Malvasia_30_260_0">
        <route edges="52 51 56[0] 56[1][0] 56[1][1] 70" />
    </vehicle>
    <vehicle depart="16.84" departPos="0" departLane="best" arrivalPos="-1" type="private" id="Pertini_20_513_0">
        <route edges="63[0] 63[1] 4[0] 4[1][1][0] 4[1][1][1]" />
    </vehicle>
    <vehicle depart="17.49" departPos="0" departLane="best" arrivalPos="-1" type="private" id="Saffi_70_677_0">
        <route edges="12 56[0] 39[0] 39[1][0] 39[1][1][0] 39[1][1][1] 45 44" />
    </vehicle>
    <vehicle depart="18.01" departPos="0" departLane="best" arrivalPos="-1" type="private" id="Pertini_20_1499_0">
        <route edges="63[0] 63[1] 4[0] 4[1][1][0] 4[1][1][1]" />
    </vehicle>
    <vehicle depart="18.54" departPos="0" departLane="best" arrivalPos="-1" type="private" id="Montefiorino_90_813_0">
        <route edges="43 81 2[0] 2[1][0] 2[1][1][0] 2[1][1][1] 2[1][1][1]b" />
    </vehicle>
    <vehicle depart="18.86" departPos="0" departLane="best" arrivalPos="-1" type="ignoring" id="Borgo_10_125_0">
        <route edges="6 100 7 9 16[0] 30 31 5[1][1][1] 8 10" />
    </vehicle>
    <vehicle depart="19.70" departPos="0" departLane="best" arrivalPos="-1" type="private" id="Malvasia_30_517_0">
        <route edges="52 51 56[0] 56[1][0] 56[1][1] 70" />
    </vehicle>
    <vehicle depart="19.87" departPos="0" departLane="best" arrivalPos="-1" type="private" id="Pertini_30_1617_0">
        <route edges="13[0] 14 17[0] 30 31 11[1][1] 70" />
    </vehicle>
    <vehicle depart="20.35" departPos="0" departLane="best" arrivalPos="-1" type="ignoring" id="Pertini_44_1502_0">
        <route edges="13[0] 14 17[0] 17[1] 11[0] 11[1][1] 101 35[0] 39[0] 39[1][0] 96 49[1] 55 53 53a" />
    </vehicle>
    <vehicle depart="21.08" departPos="0" departLane="best" arrivalPos="-1" type="ignoring" id="Gandhi_50_1679_0">
        <route edges="1[0] 25 23 17[0] 17[1] 11[0] 11[1][1] 101 35[0] 35[1][0] 35[1][1][0] 20000+35[1][1][1][0] 35[1][1][1][1]" />
    </vehicle>
    <vehicle depart="21.56" departPos="0" departLane="best" arrivalPos="-1" type="private" id="Malvasia_100_34_0">
        <route edges="52 51 56[0] 56[1][0] 56[1][1] 5[1][0]+66 5[1][1][1] 8 3[1] 3[1]b" />
    </vehicle>
    <vehicle depart="22.01" departPos="0" departLane="best" arrivalPos="-1" type="private" id="Saffi_102_179_0">
        <route edges="12 56[0] 56[1][0] 56[1][1] 5[1][0]+66 5[1][1][1] 16[0] 29[0]" />
    </vehicle>
    <vehicle depart="22.32" departPos="0" departLane="best" arrivalPos="-1" type="ignoring" id="Gandhi_52_1470_0">
        <route edges="1[0] 25 23 17[0] 30 31 11[1][1] 101 35[0] 35[1][0] 35[1][1][0] 20000+35[1][1][1][0] 35[1][1][1][1]" />
    </vehicle>
    <vehicle depart="23.23" departPos="0" departLane="best" arrivalPos="-1" type="private" id="Gandhi_60_1703_0">
        <route edges="1[0] a1[1] 1[1] 40[0] 40[1]" />
    </vehicle>
    <vehicle depart="23.60" departPos="0" departLane="best" arrivalPos="-1" type="private" id="Gandhi_60_1490_0">
        <route edges="1[0] a1[1] 1[1] 40[0] 40[1]" />
    </vehicle>
    <vehicle depart="23.97" departPos="0" departLane="best" arrivalPos="-1" type="private" id="Gandhi_60_1378_0">
        <route edges="1[0] a1[1] 1[1] 40[0] 40[1]" />
    </vehicle>
    <vehicle depart="24.51" departPos="0" departLane="best" arrivalPos="-1" type="private" id="Pertini_10_1370_0">
        <route edges="63[0] 63[1] 4[0] 4[1][1][0] 10" />
    </vehicle>
    <vehicle depart="24.88" departPos="0" departLane="best" arrivalPos="-1" type="private" id="Gandhi_60_1395_0">
        <route edges="1[0] a1[1] 1[1] 40[0] 40[1]" />
    </vehicle>
    <vehicle depart="25.35" departPos="0" departLane="best" arrivalPos="-1" type="private" id="Sabotino_9_144_0">
        <route edges="41 42 2[0] 2[1][0] 2[1][1][0] 2[1][1][1] 2[1][1][1]b" />
    </vehicle>
    <vehicle depart="25.94" departPos="0" departLane="best" arrivalPos="-1" type="private" id="Saffi_70_194_0">
        <route edges="12 56[0] 39[0] 39[1][0] 39[1][1][0] 39[1][1][1] 45 44" />
    </vehicle>
    <vehicle depart="26.71" departPos="0" departLane="best" arrivalPos="-1" type="ignoring" id="Nigrisoli_72_556_0">
        <route edges="65 101 35[0] 39[0] 39[1][0] 39[1][1][0] 39[1][1][1] 45 44" />
    </vehicle>
    <vehicle depart="26.82" departPos="0" departLane="best" arrivalPos="-1" type="private" id="Pertini_22_898_0">
        <route edges="13[0] 14 17[0] 17[1] 8 4[1][1][1]" />
    </vehicle>
    <vehicle depart="27.50" departPos="0" departLane="best" arrivalPos="-1" type="private" id="Nigrisoli_20_265_0">
        <route edges="65 5[1][0]+66 5[1][1][1] 8 4[1][1][1]" />
    </vehicle>
    <vehicle depart="28.02" departPos="0" departLane="best" arrivalPos="-1" type="private" id="Gandhi_60_157_0">
        <route edges="1[0] a1[1] 1[1] 40[0] 40[1]" />
    </vehicle>
    <vehicle depart="28.74" departPos="0" departLane="best" arrivalPos="-1" type="private" id="Saffi_103_1216_0">
        <route edges="12 56[0] 56[1][0] 56[1][1] 5[1][0]+66 5[1][1][1] 8 3[1] 3[1]b" />
    </vehicle>
    <vehicle depart="29.13" departPos="0" departLane="best" arrivalPos="-1" type="private" id="Gandhi_60_433_0">
        <route edges="1[0] a1[1] 1[1] 40[0] 40[1]" />
    </vehicle>
    <vehicle depart="29.52" departPos="0" departLane="best" arrivalPos="-1" type="private" id="Pertini_20_1442_0">
        <route edges="63[0] 63[1] 4[0] 4[1][1][0] 4[1][1][1]" />
    </vehicle>
    <vehicle depart="29.90" departPos="0" departLane="best" arrivalPos="-1" type="private" id="Pertini_20_578_0">
        <route edges="63[0] 63[1] 4[0] 4[1][1][0] 4[1][1][1]" />
    </vehicle>
    <vehicle depart="30.75" departPos="0" departLane="best" arrivalPos="-1" type="private" id="Malvasia_92_299_0">
        <route edges="52 51 56[0] 56[1][0] 34[0] 34[1][0] 34[1][1] 2[1][0] 2[1][1][0] 2[1][1][1] 2[1][1][1]b" />
    </vehicle>
    <vehicle depart="31.00" departPos="0" departLane="best" arrivalPos="-1" type="private" id="Pertini_20_145_0">
        <route edges="63[0] 63[1] 4[0] 4[1][1][0] 4[1][1][1]" />
    </vehicle>
    <vehicle depart="31.62" departPos="0" departLane="best" arrivalPos="-1" type="private" id="Prati_Capraia_100_45_0">
        <route edges="3[0] 3[1] 3[1]b" />
    </vehicle>
    <vehicle depart="31.98" departPos="0" departLane="best" arrivalPos="-1" type="ignoring" id="Pertini_50_1005_0">
        <route edges="63[0] 63[1] 4[0] 4[1][1][0] 9 11[0] 11[1][1] 101 35[0] 35[1][0] 35[1][1][0] 20000+35[1][1][1][0] 35[1][1][1][1]" />
    </vehicle>
    <vehicle depart="32.42" departPos="0" departLane="best" arrivalPos="-1" type="private" id="Gandhi_70_718_0">
        <route edges="1[0] a1[1] 1[1] 44" />
    </vehicle>
    <vehicle depart="33.12" departPos="0" departLane="best" arrivalPos="-1" type="private" id="Malvasia_100_9_0">
        <route edges="52 51 56[0] 56[1][0] 56[1][1] 5[1][0]+66 5[1][1][1] 8 3[1] 3[1]b" />
    </vehicle>
    <vehicle depart="33.73" departPos="0" departLane="best" arrivalPos="-1" type="private" id="Pertini_20_225_0">
        <route edges="63[0] 63[1] 4[0] 4[1][1][0] 4[1][1][1]" />
    </vehicle>
    <vehicle depart="34.00" departPos="0" departLane="best" arrivalPos="-1" type="private" id="Saffi_90_135_0">
        <route edges="12 56[0] 39[0] 39[1][0] 39[1][1][0] 39[1][1][1] 45 2[0] 2[1][0] 2[1][1][0] 2[1][1][1] 2[1][1][1]b" />
    </vehicle>
    <vehicle depart="34.67" departPos="0" departLane="best" arrivalPos="-1" type="private" id="Gandhi_40_2284_0">
        <route edges="1[0] a1[1] 1[1] 38[0] 38[0]a 46 49[0] 49[1] 55 53 53a" />
    </vehicle>
    <vehicle depart="35.17" departPos="0" departLane="best" arrivalPos="-1" type="private" id="Pertini_20_789_0">
        <route edges="63[0] 63[1] 4[0] 4[1][1][0] 4[1][1][1]" />
    </vehicle>
    <vehicle depart="35.40" departPos="0" departLane="best" arrivalPos="-1" type="private" id="Gandhi_60_1865_0">
        <route edges="1[0] a1[1] 1[1] 40[0] 40[1]" />
    </vehicle>
    <vehicle depart="36.13" departPos="0" departLane="best" arrivalPos="-1" type="private" id="Pertini_20_1312_0">
        <route edges="63[0] 63[1] 4[0] 4[1][1][0] 4[1][1][1]" />
    </vehicle>
    <vehicle depart="36.36" departPos="0" departLane="best" arrivalPos="-1" type="private" id="Pertini_20_0_0">
        <route edges="63[0] 63[1] 4[0] 4[1][1][0] 4[1][1][1]" />
    </vehicle>
    <vehicle depart="36.92" departPos="0" departLane="best" arrivalPos="-1" type="private" id="Prati_Capraia_100_515_0">
        <route edges="3[0] 3[1] 3[1]b" />
    </vehicle>
    <vehicle depart="37.26" departPos="0" departLane="best" arrivalPos="-1" type="private" id="Gandhi_60_1579_0">
        <route edges="1[0] a1[1] 1[1] 40[0] 40[1]" />
    </vehicle>
    <vehicle depart="37.77" departPos="0" departLane="best" arrivalPos="-1" type="private" id="Prati_Capraia_100_586_0">
        <route edges="3[0] 3[1] 3[1]b" />
    </vehicle>
    <vehicle depart="38.71" departPos="0" departLane="best" arrivalPos="-1" type="private" id="Prati_Capraia_100_355_0">
        <route edges="3[0] 3[1] 3[1]b" />
    </vehicle>
    <vehicle depart="38.95" departPos="0" departLane="best" arrivalPos="-1" type="private" id="Gandhi_60_2083_0">
        <route edges="1[0] a1[1] 1[1] 40[0] 40[1]" />
    </vehicle>
    <vehicle depart="39.36" departPos="0" departLane="best" arrivalPos="-1" type="private" id="Gandhi_40_2076_0">
        <route edges="1[0] a1[1] 1[1] 38[0] 38[0]a 46 49[0] 49[1] 55 53 53a" />
    </vehicle>
    <vehicle depart="40.20" departPos="0" departLane="best" arrivalPos="-1" type="private" id="Montefiorino_22_512_0">
        <route edges="43 81 2[0] 2[1][0] 24 23 17[0] 17[1] 8 4[1][1][1]" />
    </vehicle>
    <vehicle depart="40.62" departPos="0" departLane="best" arrivalPos="-1" type="private" id="Pertini_20_1435_0">
        <route edges="63[0] 63[1] 4[0] 4[1][1][0] 4[1][1][1]" />
    </vehicle>
    <vehicle depart="41.05" departPos="0" departLane="best" arrivalPos="-1" type="private" id="Gandhi_60_2188_0">
        <route edges="1[0] a1[1] 1[1] 40[0] 40[1]" />
    </vehicle>
    <vehicle depart="41.49" departPos="0" departLane="best" arrivalPos="-1" type="private" id="Pertini_20_541_0">
        <route edges="63[0] 63[1] 4[0] 4[1][1][0] 4[1][1][1]" />
    </vehicle>
    <vehicle depart="41.84" departPos="0" departLane="best" arrivalPos="-1" type="private" id="Pertini_23_612_0">
        <route edges="13[0] 14 17[0] 29[0] 29[1] 4[1][1][0] 4[1][1][1]" />
    </vehicle>
    <vehicle depart="42.43" departPos="0" departLane="best" arrivalPos="-1" type="private" id="Montefiorino_60_748_0">
        <route edges="43 81 40[0] 40[1]" />
    </vehicle>
    <vehicle depart="43.00" departPos="0" departLane="best" arrivalPos="-1" type="private" id="Malvasia_100_537_0">
        <route edges="52 51 56[0] 56[1][0] 56[1][1] 5[1][0]+66 5[1][1][1] 8 3[1] 3[1]b" />
    </vehicle>
    <vehicle depart="43.27" departPos="0" departLane="best" arrivalPos="-1" type="private" id="Prati_Capraia_100_546_0">
        <route edges="3[0] 3[1] 3[1]b" />
    </vehicle>
    <vehicle depart="43.76" departPos="0" departLane="best" arrivalPos="-1" type="private" id="Montefiorino_90_543_0">
        <route edges="43 81 2[0] 2[1][0] 2[1][1][0] 2[1][1][1] 2[1][1][1]b" />
    </vehicle>
    <vehicle depart="44.50" departPos="0" departLane="best" arrivalPos="-1" type="ignoring" id="Pertini_73_131_0">
        <route edges="13[0] 14 27 36 39[1][1][1] 45 44" />
    </vehicle>
    <vehicle depart="44.93" departPos="0" departLane="best" arrivalPos="-1" type="private" id="Saffi_103_100_0">
        <route edges="12 56[0] 56[1][0] 56[1][1] 5[1][0]+66 5[1][1][1] 8 3[1] 3[1]b" />
    </vehicle>
    <vehicle depart="45.59" departPos="0" departLane="best" arrivalPos="-1" type="private" id="Pertini_20_91_0">
        <route edges="63[0] 63[1] 4[0] 4[1][1][0] 4[1][1][1]" />
    </vehicle>
    <vehicle depart="46.24" departPos="0" departLane="best" arrivalPos="-1" type="private" id="Saffi_103_1120_0">
        <route edges="12 56[0] 56[1][0] 56[1][1] 5[1][0]+66 5[1][1][1] 8 3[1] 3[1]b" />
    </vehicle>
    <vehicle depart="46.69" departPos="0" departLane="best" arrivalPos="-1" type="private" id="Pertini_20_1254_0">
        <route edges="63[0] 63[1] 4[0] 4[1][1][0] 4[1][1][1]" />
    </vehicle>
    <vehicle depart="47.09" departPos="0" departLane="best" arrivalPos="-1" type="private" id="Montefiorino_90_424_0">
        <route edges="43 81 2[0] 2[1][0] 2[1][1][0] 2[1][1][1] 2[1][1][1]b" />
    </vehicle>
    <vehicle depart="47.53" departPos="0" departLane="best" arrivalPos="-1" type="private" id="Pertini_20_1507_0">
        <route edges="63[0] 63[1] 4[0] 4[1][1][0] 4[1][1][1]" />
    </vehicle>
    <vehicle depart="47.76" departPos="0" departLane="best" arrivalPos="-1" type="private" id="Montefiorino_20_319_0">
        <route edges="43 81 2[0] 2[1][0] 2[1][1][0] 2[1][1][1] 2[1][1][1]b" />
    </vehicle>
    <vehicle depart="48.30" departPos="0" departLane="best" arrivalPos="-1" type="private" id="Prati_Capraia_100_520_0">
        <route edges="3[0] 3[1] 3[1]b" />
    </vehicle>
    <vehicle depart="48.97" departPos="0" departLane="best" arrivalPos="-1" type="private" id="Gandhi_60_1952_0">
        <route edges="1[0] a1[1] 1[1] 40[0] 40[1]" />
    </vehicle>
    <vehicle depart="49.30" departPos="0" departLane="best" arrivalPos="-1" type="private" id="Gandhi_40_2023_0">
        <route edges="1[0] a1[1] 1[1] 38[0] 38[0]a 46 49[0] 49[1] 55 53 53a" />
    </vehicle>
    <vehicle depart="50.06" departPos="0" departLane="best" arrivalPos="-1" type="private" id="Gandhi_60_1987_0">
        <route edges="1[0] a1[1] 1[1] 40[0] 40[1]" />
    </vehicle>
    <vehicle depart="50.58" departPos="0" departLane="best" arrivalPos="-1" type="private" id="Gandhi_60_505_0">
        <route edges="1[0] a1[1] 1[1] 40[0] 40[1]" />
    </vehicle>
    <vehicle depart="50.84" departPos="0" departLane="best" arrivalPos="-1" type="private" id="Prati_Capraia_10_614_0">
        <route edges="3[0] 10" />
    </vehicle>
    <vehicle depart="51.59" departPos="0" departLane="best" arrivalPos="-1" type="private" id="Pertini_22_298_0">
        <route edges="13[0] 14 17[0] 17[1] 8 4[1][1][1]" />
    </vehicle>
    <vehicle depart="52.19" departPos="0" departLane="best" arrivalPos="-1" type="private" id="Malvasia_100_487_0">
        <route edges="52 51 56[0] 56[1][0] 56[1][1] 5[1][0]+66 5[1][1][1] 8 3[1] 3[1]b" />
    </vehicle>
    <vehicle depart="52.59" departPos="0" departLane="best" arrivalPos="-1" type="private" id="Sabotino_9_47_0">
        <route edges="41 42 2[0] 2[1][0] 2[1][1][0] 2[1][1][1] 2[1][1][1]b" />
    </vehicle>
    <vehicle depart="52.98" departPos="0" departLane="best" arrivalPos="-1" type="private" id="Montefiorino_30_605_0">
        <route edges="43 81 38[0] 38[0]a 38[1][0] 38[1][1] 38[1][1]a 56[1][0] 56[1][1] 70" />
    </vehicle>
    <vehicle depart="53.72" departPos="0" departLane="best" arrivalPos="-1" type="private" id="Saffi_90_945_0">
        <route edges="12 56[0] 39[0] 39[1][0] 39[1][1][0] 39[1][1][1] 45 2[0] 2[1][0] 2[1][1][0] 2[1][1][1] 2[1][1][1]b" />
    </vehicle>
    <vehicle depart="54.19" departPos="0" departLane="best" arrivalPos="-1" type="private" id="Nigrisoli_90_109_0">
        <route edges="65 5[1][0]+66 5[1][1][1] 16[0] 16[1] 18 20+19b 2[1][1][1]b" />
    </vehicle>
    <vehicle depart="54.62" departPos="0" departLane="best" arrivalPos="-1" type="private" id="Gandhi_60_1245_0">
        <route edges="1[0] a1[1] 1[1] 40[0] 40[1]" />
    </vehicle>
    <vehicle depart="55.23" departPos="0" departLane="best" arrivalPos="-1" type="private" id="Montefiorino_90_804_0">
        <route edges="43 81 2[0] 2[1][0] 2[1][1][0] 2[1][1][1] 2[1][1][1]b" />
    </vehicle>
    <vehicle depart="55.57" departPos="0" departLane="best" arrivalPos="-1" type="private" id="Saffi_92_498_0">
        <route edges="12 56[0] 56[1][0] 34[0] 34[1][0] 26 26.-170 18 20+19b 2[1][1][1]b" />
    </vehicle>
    <vehicle depart="55.87" departPos="0" departLane="best" arrivalPos="-1" type="private" id="Gandhi_60_586_0">
        <route edges="1[0] a1[1] 1[1] 40[0] 40[1]" />
    </vehicle>
    <vehicle depart="56.31" departPos="0" departLane="best" arrivalPos="-1" type="private" id="Sabotino_9_256_0">
        <route edges="41 42 2[0] 2[1][0] 2[1][1][0] 2[1][1][1] 2[1][1][1]b" />
    </vehicle>
    <vehicle depart="56.98" departPos="0" departLane="best" arrivalPos="-1" type="private" id="Montefiorino_23_225_0">
        <route edges="43 81 38[0] 38[0]a 38[1][0] 38[1][1] 38[1][1]a 56[1][0] 56[1][1] 5[1][0]+66 5[1][1][1] 8 4[1][1][1]" />
    </vehicle>
    <vehicle depart="57.41" departPos="0" departLane="best" arrivalPos="-1" type="private" id="Gandhi_60_764_0">
        <route edges="1[0] a1[1] 1[1] 40[0] 40[1]" />
    </vehicle>
    <vehicle depart="58.20" departPos="0" departLane="best" arrivalPos="-1" type="private" id="Malvasia_30_574_0">
        <route edges="52 51 56[0] 56[1][0] 56[1][1] 70" />
    </vehicle>
    <vehicle depart="58.43" departPos="0" departLane="best" arrivalPos="-1" type="private" id="Gandhi_60_701_0">
        <route edges="1[0] a1[1] 1[1] 40[0] 40[1]" />
    </vehicle>
    <vehicle depart="58.95" departPos="0" departLane="best" arrivalPos="-1" type="private" id="Montefiorino_90_798_0">
        <route edges="43 81 2[0] 2[1][0] 2[1][1][0] 2[1][1][1] 2[1][1][1]b" />
    </vehicle>
    <vehicle depart="59.32" departPos="0" departLane="best" arrivalPos="-1" type="private" id="Saffi_103_973_0">
        <route edges="12 56[0] 56[1][0] 56[1][1] 5[1][0]+66 5[1][1][1] 8 3[1] 3[1]b" />
    </vehicle>
    <vehicle depart="59.96" departPos="0" departLane="best" arrivalPos="-1" type="private" id="Montefiorino_22_203_0">
        <route edges="43 81 2[0] 2[1][0] 24 23 17[0] 17[1] 8 4[1][1][1]" />
    </vehicle>
    <vehicle depart="60.71" departPos="0" departLane="best" arrivalPos="-1" type="private" id="Gandhi_60_2050_0">
        <route edges="1[0] a1[1] 1[1] 40[0] 40[1]" />
    </vehicle>
    <vehicle depart="60.90" departPos="0" departLane="best" arrivalPos="-1" type="private" id="Gandhi_60_1476_0">
        <route edges="1[0] a1[1] 1[1] 40[0] 40[1]" />
    </vehicle>
    <vehicle depart="61.49" departPos="0" departLane="best" arrivalPos="-1" type="private" id="Gandhi_60_1364_0">
        <route edges="1[0] a1[1] 1[1] 40[0] 40[1]" />
    </vehicle>
    <vehicle depart="61.91" departPos="0" departLane="best" arrivalPos="-1" type="private" id="Pertini_20_939_0">
        <route edges="63[0] 63[1] 4[0] 4[1][1][0] 4[1][1][1]" />
    </vehicle>
    <vehicle depart="62.36" departPos="0" departLane="best" arrivalPos="-1" type="private" id="Borgo_100_53_0">
        <route edges="6 100 7 3[1] 3[1]b" />
    </vehicle>
    <vehicle depart="62.95" departPos="0" departLane="best" arrivalPos="-1" type="private" id="Montefiorino_60_361_0">
        <route edges="43 81 40[0] 40[1]" />
    </vehicle>
    <vehicle depart="63.74" departPos="0" departLane="best" arrivalPos="-1" type="private" id="Montefiorino_60_7_0">
        <route edges="43 81 40[0] 40[1]" />
    </vehicle>
    <vehicle depart="63.95" departPos="0" departLane="best" arrivalPos="-1" type="private" id="Nigrisoli_100_453_0">
        <route edges="65 5[1][0]+66 5[1][1][1] 8 3[1] 3[1]b" />
    </vehicle>
    <vehicle depart="64.49" departPos="0" departLane="best" arrivalPos="-1" type="private" id="Sabotino_9_135_0">
        <route edges="41 42 2[0] 2[1][0] 2[1][1][0] 2[1][1][1] 2[1][1][1]b" />
    </vehicle>
    <vehicle depart="64.99" departPos="0" departLane="best" arrivalPos="-1" type="private" id="Pertini_62_1441_0">
        <route edges="63[0] 63[1] 4[0] 28 28a 16[1] 18 20+19a a1[1] 1[1] 40[0] 40[1]" />
    </vehicle>
    <vehicle depart="65.38" departPos="0" departLane="best" arrivalPos="-1" type="private" id="Montefiorino_90_547_0">
        <route edges="43 81 2[0] 2[1][0] 2[1][1][0] 2[1][1][1] 2[1][1][1]b" />
    </vehicle>
    <vehicle depart="65.80" departPos="0" departLane="best" arrivalPos="-1" type="private" id="Gandhi_60_620_0">
        <route edges="1[0] a1[1] 1[1] 40[0] 40[1]" />
    </vehicle>
    <vehicle depart="66.37" departPos="0" departLane="best" arrivalPos="-1" type="private" id="Borgo_20_49_0">
        <route edges="6 100 7 4[1][1][1]" />
    </vehicle>
    <vehicle depart="67.06" departPos="0" departLane="best" arrivalPos="-1" type="private" id="Pertini_20_853_0">
        <route edges="63[0] 63[1] 4[0] 4[1][1][0] 4[1][1][1]" />
    </vehicle>
    <vehicle depart="67.64" departPos="0" departLane="best" arrivalPos="-1" type="private" id="Malvasia_70_0_0">
        <route edges="52 51 56[0] 39[0] 39[1][0] 39[1][1][0] 39[1][1][1] 45 44" />
    </vehicle>
    <vehicle depart="67.75" departPos="0" departLane="best" arrivalPos="-1" type="private" id="Malvasia_95_183_0">
        <route edges="52 51 50[0] 97 39[1][0] 39[1][1][0] 37 34[1][1] 2[1][0] 2[1][1][0] 2[1][1][1] 2[1][1][1]b" />
    </vehicle>
    <vehicle depart="68.75" departPos="0" departLane="best" arrivalPos="-1" type="private" id="Sabotino_9_309_0">
        <route edges="41 42 2[0] 2[1][0] 2[1][1][0] 2[1][1][1] 2[1][1][1]b" />
    </vehicle>
    <vehicle depart="68.84" departPos="0" departLane="best" arrivalPos="-1" type="private" id="Pertini_20_1141_0">
        <route edges="63[0] 63[1] 4[0] 4[1][1][0] 4[1][1][1]" />
    </vehicle>
    <vehicle depart="69.71" departPos="0" departLane="best" arrivalPos="-1" type="private" id="Pertini_20_1140_0">
        <route edges="63[0] 63[1] 4[0] 4[1][1][0] 4[1][1][1]" />
    </vehicle>
    <vehicle depart="69.80" departPos="0" departLane="best" arrivalPos="-1" type="private" id="Gandhi_60_962_0">
        <route edges="1[0] a1[1] 1[1] 40[0] 40[1]" />
    </vehicle>
    <vehicle depart="70.58" departPos="0" departLane="best" arrivalPos="-1" type="private" id="Gandhi_40_1420_0">
        <route edges="1[0] a1[1] 1[1] 38[0] 38[0]a 46 49[0] 49[1] 55 53 53a" />
    </vehicle>
    <vehicle depart="70.87" departPos="0" departLane="best" arrivalPos="-1" type="private" id="Gandhi_60_983_0">
        <route edges="1[0] a1[1] 1[1] 40[0] 40[1]" />
    </vehicle>
    <vehicle depart="71.74" departPos="0" departLane="best" arrivalPos="-1" type="private" id="Montefiorino_30_64_0">
        <route edges="43 81 38[0] 38[0]a 38[1][0] 38[1][1] 38[1][1]a 56[1][0] 56[1][1] 70" />
    </vehicle>
    <vehicle depart="71.79" departPos="0" departLane="best" arrivalPos="-1" type="private" id="Prati_Capraia_100_18_0">
        <route edges="3[0] 3[1] 3[1]b" />
    </vehicle>
    <vehicle depart="72.32" departPos="0" departLane="best" arrivalPos="-1" type="private" id="Saffi_103_1180_0">
        <route edges="12 56[0] 56[1][0] 56[1][1] 5[1][0]+66 5[1][1][1] 8 3[1] 3[1]b" />
    </vehicle>
    <vehicle depart="73.14" departPos="0" departLane="best" arrivalPos="-1" type="private" id="Gandhi_80_1511_0">
        <route edges="1[0] 21" />